   CRYSTAL
   PRIMVEC
   3.8425147582   0.0000000000   0.0000000000
   0.0000000000   3.8425147582   0.0000000000
   0.0000000000   0.0000000000   3.8425147582
 PRIMCOORD
         3         1
   H    1.9212573729   1.9212573593   1.9212573783
   H    1.9212573791   1.9212573603   1.9212573567
   H    1.9212573705   1.9212573782   1.9212573939
